LTspice 26.0.1 for Windows
Circuit: D:\Università\Progetto-Tesi\Channel_act_sym.net
Start Time: Mon Mar 23 21:06:37 2026
solver = Normal
Maximum thread count: 16
tnom = 27
temp = 27
method = trap
ERROR: Node hvout is floating and connected to current source F1

Direct Newton iteration succeeded in finding operating point.
Total elapsed time: 0.269 seconds.

Files loaded:
D:\Università\Progetto-Tesi\Channel_act_sym.net
C:\Users\pq\AppData\Local\LTspice\lib\cmp\standard.dio
C:\Users\pq\AppData\Local\LTspice\lib\cmp\standard.mos

