LTspice 26.0.1 for Windows
Circuit: D:\Università\Progetto-Tesi\Discharge_sim.net
Start Time: Thu Mar 19 10:50:29 2026
D:\Università\Progetto-Tesi\Discharge_sim.net(20): Corrected wrong sign of increment.
.dc V1 60 1 0.1
            ^^^
solver = Normal
Maximum thread count: 16
tnom = 27
temp = 27
method = trap
Total elapsed time: 0.188 seconds.

Files loaded:
D:\Università\Progetto-Tesi\Discharge_sim.net
C:\Users\pq\AppData\Local\LTspice\lib\cmp\standard.dio
C:\Users\pq\AppData\Local\LTspice\lib\cmp\standard.mos

